12
glucose from 2gbp
C  35.884  30.895  49.120
C  36.177  29.853  50.124
C  37.296  30.296  51.074
C  38.553  30.400  50.259
C  38.357  31.290  49.044
C  39.559  31.209  48.082
O  34.968  30.340  48.234
O  34.923  29.775  50.910
O  37.441  29.265  52.113
O  39.572  30.954  51.086
O  37.155  30.858  48.364
O  39.261  32.018  46.920
C  45.884  40.895  59.120
C  46.177  39.853  60.124
C  47.296  40.296  61.074
C  48.553  40.400  60.259
C  48.357  41.290  59.044
C  49.559  41.209  58.082
O  44.968  40.340  58.234
O  44.923  39.775  60.910
O  47.441  39.265  62.113
O  49.572  40.954  61.086
O  47.155  40.858  58.364
O  49.261  42.018  56.920
